# generated using pymatgen
data_Ca3VN3
_symmetry_space_group_name_H-M   Cmcm
_cell_length_a   8.51285689
_cell_length_b   10.36043111
_cell_length_c   5.06334687
_cell_angle_alpha   90.00000000
_cell_angle_beta   90.00000000
_cell_angle_gamma   90.00000000
_symmetry_Int_Tables_number   63
_chemical_formula_structural   Ca3VN3
_chemical_formula_sum   'Ca12 V4 N12'
_cell_volume   446.57133199
_cell_formula_units_Z   4
loop_
 _symmetry_equiv_pos_site_id
 _symmetry_equiv_pos_as_xyz
  1  'x, y, z'
  2  '-x, -y, -z'
  3  '-x, -y, z+1/2'
  4  'x, y, -z+1/2'
  5  'x, -y, -z'
  6  '-x, y, z'
  7  '-x, y, -z+1/2'
  8  'x, -y, z+1/2'
  9  'x+1/2, y+1/2, z'
  10  '-x+1/2, -y+1/2, -z'
  11  '-x+1/2, -y+1/2, z+1/2'
  12  'x+1/2, y+1/2, -z+1/2'
  13  'x+1/2, -y+1/2, -z'
  14  '-x+1/2, y+1/2, z'
  15  '-x+1/2, y+1/2, -z+1/2'
  16  'x+1/2, -y+1/2, z+1/2'
loop_
 _atom_type_symbol
 _atom_type_oxidation_number
  Ca2+  2.0
  V3+  3.0
  N3-  -3.0
loop_
 _atom_site_type_symbol
 _atom_site_label
 _atom_site_symmetry_multiplicity
 _atom_site_fract_x
 _atom_site_fract_y
 _atom_site_fract_z
 _atom_site_occupancy
  Ca2+  Ca0  8  0.21393742  0.38459634  0.75000000  1
  Ca2+  Ca1  4  0.00000000  0.10824619  0.75000000  1
  V3+  V2  4  0.00000000  0.30275377  0.25000000  1
  N3-  N3  8  0.19325183  0.37588774  0.25000000  1
  N3-  N4  4  0.00000000  0.12708010  0.25000000  1
